https://misarnite.github.io/?neMH1XuV~4
https://misarnite.github.io/?vH2D3yq7~w
https://misarnite.github.io/?B6h8Q~VU5g
https://misarnite.github.io/?dwG~iw7I2l
https://misarnite.github.io/?cPgNMQ~rfC
https://misarnite.github.io/?u~hfgByEQg
https://misarnite.github.io/?gbLsUrFf~J
https://misarnite.github.io/?pe~GW7tA6x
https://misarnite.github.io/?Ag3~OWivRG
https://misarnite.github.io/?QeIPTm~0vW
https://misarnite.github.io/?gtqMzxf~X7
https://misarnite.github.io/?kwfI0vr~KT
https://misarnite.github.io/?~DeVr7VR9g
https://misarnite.github.io/?iZhlkaIi~m
https://misarnite.github.io/?NZhuN~lZa5
https://misarnite.github.io/?lypT~6jGEd
https://misarnite.github.io/?Po5hWNz~pg
https://misarnite.github.io/?~a8GpIc
https://misarnite.github.io/?KNI2B70~Ga
https://misarnite.github.io/?vRf6i~J6In
https://misarnite.github.io/?1e~AcEyc3x
https://misarnite.github.io/?NoGR95QV~W
https://misarnite.github.io/?AipTsZs~2P
https://misarnite.github.io/?sbE~n5sV95
https://misarnite.github.io/?hb8Z~1Ryx
https://misarnite.github.io/?6Jz~sEUDbp
https://misarnite.github.io/?sm5oVWM~sA
https://misarnite.github.io/?~s7i8WoeC2
https://misarnite.github.io/?YRaL~H8A0l
https://misarnite.github.io/?XTYlaT~rNz
https://misarnite.github.io/?yLH~Zz7guX
https://misarnite.github.io/?5pxg~fPJY1
https://misarnite.github.io/?fcCnphQ~Uy
https://misarnite.github.io/?NAxFx~KdUT
https://misarnite.github.io/?~sqZI8i3iE
https://misarnite.github.io/?j~QAh2sLqq
https://misarnite.github.io/?~qzvBp2Cfu
https://misarnite.github.io/?hPUpx~54TT
https://misarnite.github.io/?5UFpsgG~kf
https://misarnite.github.io/?t~FrxVst6k
https://misarnite.github.io/?~HJNTzKEhT
https://misarnite.github.io/?UZ83g8Z~xo
https://misarnite.github.io/?4E90iqLA~7
https://misarnite.github.io/?HhVO~w8
https://misarnite.github.io/?g6Vs3LeX~M
https://misarnite.github.io/?~gzsAW13Eb
https://misarnite.github.io/?M3~KnErnM8
https://misarnite.github.io/?lA~nOMdZYH
https://misarnite.github.io/?s~PYvjJZwq
https://misarnite.github.io/?HwmPhDH~oK
https://misarnite.github.io/?y91uxi~5Aq
https://misarnite.github.io/?c~zysl0XDb
https://misarnite.github.io/?DbsiR~EnDL
https://misarnite.github.io/?Fq~fGEcsEF
https://misarnite.github.io/?BEZKt~MMjK
https://misarnite.github.io/?eiL6Cx~ZlA
https://misarnite.github.io/?MT3Ddfi~DW
https://misarnite.github.io/?WbnxvzOj~y
https://misarnite.github.io/?YDqZ~ZxiHp
https://misarnite.github.io/?bB~dJXBtaV
https://misarnite.github.io/?w~ATxU6137
https://misarnite.github.io/?HL~d28hC4g
https://misarnite.github.io/?QUPFl~yFyF
https://misarnite.github.io/?zxc7VmY5k~
https://misarnite.github.io/?VNGAg~0hpU
https://misarnite.github.io/?5Vk808w~6C
https://misarnite.github.io/?NTWCrM~axB
https://misarnite.github.io/?c7~RW80yxi
https://misarnite.github.io/?r8~R7PDDu9
https://misarnite.github.io/?~hmBKrJJ7M
https://misarnite.github.io/?iBQFD7~cNp
https://misarnite.github.io/?z~U5OJPRWQ
https://misarnite.github.io/?AGUhd~uOVp
https://misarnite.github.io/?pZAG~dLULj
https://misarnite.github.io/?qLQ~oy8RU7
https://misarnite.github.io/?W3~drWHK5H
https://misarnite.github.io/?L2Uh~iMpZu
https://misarnite.github.io/?0~XB4Effwb
https://misarnite.github.io/?hxuzrO42O~
https://misarnite.github.io/?SFC~rrcl35
https://misarnite.github.io/?u~7naqdvaX
https://misarnite.github.io/?GMVO34hr~i
https://misarnite.github.io/?sxzeQ~vfyd
https://misarnite.github.io/?djAn2Ao6~a
https://misarnite.github.io/?9JZjP2~Q6w
https://misarnite.github.io/?QbUh~MrFXv
https://misarnite.github.io/?V1ubv16H~X
https://misarnite.github.io/?47vy8~6VIs
https://misarnite.github.io/?j~T2UOMUyk
https://misarnite.github.io/?M~HvzYkSfw
https://misarnite.github.io/?N6LVUOX~hv
https://misarnite.github.io/?~KZ82ZE4Fu
https://misarnite.github.io/?Y18t7~kn6d
https://misarnite.github.io/?lX~dOaLekJ
https://misarnite.github.io/?e3a~VzzCPz
https://misarnite.github.io/?BZwQlC~6S2
https://misarnite.github.io/?bAKGcK~Wvt
https://misarnite.github.io/?~nq9y8GDcY
https://misarnite.github.io/?qb~F3uSMua
https://misarnite.github.io/?TcYN~AGV6T
https://misarnite.github.io/?N~RV07SLgn
https://misarnite.github.io/?1J~G0oOlwo
https://misarnite.github.io/?DBageat0T~
https://misarnite.github.io/?UAvfgTXq7~
https://misarnite.github.io/?j~hioMGUiB
https://misarnite.github.io/?~Wq7JYAe5Z
https://misarnite.github.io/?w647DMLzI~
https://misarnite.github.io/?8og~BNqy6w
https://misarnite.github.io/?TMzwU90~VF
https://misarnite.github.io/?G7~AJ5jPDP
https://misarnite.github.io/?AGTBFXcO~a
https://misarnite.github.io/?t2~w8aJGgo
https://misarnite.github.io/?FZIx~87TWW
https://misarnite.github.io/?516~90wHnc
https://misarnite.github.io/?rVU0s1~WLV
https://misarnite.github.io/?K51nCi~8Zi
https://misarnite.github.io/?8EO~jCctDa
https://misarnite.github.io/?A8bXz9K9R~
https://misarnite.github.io/?Jzb1G5~cH5
https://misarnite.github.io/?bBP4If~tjB
https://misarnite.github.io/?LIsNZ~5
https://misarnite.github.io/?VZ1xP~dNaQ
https://misarnite.github.io/?sxtIor8xb~
https://misarnite.github.io/?a~lGes4OFt
https://misarnite.github.io/?erd5v~L643
https://misarnite.github.io/?jtv~qZnYMS
https://misarnite.github.io/?Ys0SYI~bAH
https://misarnite.github.io/?3ZCIQB~qY5
https://misarnite.github.io/?sTj~RNhTSb
https://misarnite.github.io/?utU7r5D4y~
https://misarnite.github.io/?wl~Z0M6DPk
https://misarnite.github.io/?7mZcJYCHA~
https://misarnite.github.io/?gr1F~AHwYq
https://misarnite.github.io/?9i~QGl2fxx
https://misarnite.github.io/?f9WCtLj3z~
https://misarnite.github.io/?wa8Tj~jWak
https://misarnite.github.io/?MFzJEu~O9O
https://misarnite.github.io/?GD~zVPE94j
https://misarnite.github.io/?L6J8d~Jb6j
https://misarnite.github.io/?DR3ZLJj~Hs
https://misarnite.github.io/?XTbNa~gWoF
https://misarnite.github.io/?~7rqtPtmNp
https://misarnite.github.io/?m5fKVrwf4~
https://misarnite.github.io/?RZJIwb~hHi
https://misarnite.github.io/?o0w2t~4aHH
https://misarnite.github.io/?d~RsK1p1nB
https://misarnite.github.io/?~ZKHttTY83
https://misarnite.github.io/?ytzBMwQ~rW
https://misarnite.github.io/?z0oEPh2qb~
https://misarnite.github.io/?Y1JV~uINKS
https://misarnite.github.io/?BKyu0x~TXS
https://misarnite.github.io/?fsTWq46E4~
https://misarnite.github.io/?QO8jl~1bvH
https://misarnite.github.io/?~ABwXG05eg
https://misarnite.github.io/?SXgQgdj~nK
https://misarnite.github.io/?FjWUy~t2yU
https://misarnite.github.io/?df65Gma7h~
https://misarnite.github.io/?92g~0hxgBH
https://misarnite.github.io/?bKIUKhDQ~Q
https://misarnite.github.io/?J3saOuw~em
https://misarnite.github.io/?lVePn5s~f2
https://misarnite.github.io/?MCvoASc~LG
https://misarnite.github.io/?Q~fU7GDJb7
https://misarnite.github.io/?5On2~asR6s
https://misarnite.github.io/?Qx8C8~bXwf
https://misarnite.github.io/?C5SRh~YmDP
https://misarnite.github.io/?bV~pPKnIz3
https://misarnite.github.io/?~zTataKgc1
https://misarnite.github.io/?oeAnC55Ii~
https://misarnite.github.io/?jbGpOCO4Y~
https://misarnite.github.io/?08zifg6Mr~
https://misarnite.github.io/?9ak6Phya~K
https://misarnite.github.io/?GrlAG~bt58
https://misarnite.github.io/?5SOzeu~vv3
https://misarnite.github.io/?~Xe1oqWX6f
https://misarnite.github.io/?rmGas~a1q0
https://misarnite.github.io/?zQe~Azcbmn
https://misarnite.github.io/?tEZU4ISJ~P
https://misarnite.github.io/?IFOR~clTJO
https://misarnite.github.io/?R6u4EZpYQ~
https://misarnite.github.io/?W~0aeaHAOx
https://misarnite.github.io/?2uKJd~xCwG
https://misarnite.github.io/?2oTfVlB4~a
https://misarnite.github.io/?3XWTXwyD4~
https://misarnite.github.io/?pfW~Uj0Ebh
https://misarnite.github.io/?3~zIJJDWo5
https://misarnite.github.io/?5OdNox1v~9
https://misarnite.github.io/?8BVjpFo0~y
https://misarnite.github.io/?Jgut65Oy9~
https://misarnite.github.io/?~VIn4pRBA4
https://misarnite.github.io/?o7IQ8FB~GJ
https://misarnite.github.io/?G3~oNj8xGV
https://misarnite.github.io/?7D~NoqI3lR
https://misarnite.github.io/?y0PV~H4zGE
https://misarnite.github.io/?9G~iV5KJG3
https://misarnite.github.io/?EVSrzlr80~
https://misarnite.github.io/?ciYF~KHxLo
https://misarnite.github.io/?04QxmnUt~Y
https://misarnite.github.io/?rW4G~Fc2Oz
https://misarnite.github.io/?36njd~c2VB
https://misarnite.github.io/?UEN~8gynzL
https://misarnite.github.io/?pCPCwa~RGM
https://misarnite.github.io/?orqdWerU~U
https://misarnite.github.io/?zQKt2H~cJ4
https://misarnite.github.io/?d~LWfVjPDY
https://misarnite.github.io/?8230qiNK~p
https://misarnite.github.io/?Y~HKAiicE1
https://misarnite.github.io/?XCLQBDM~GY
https://misarnite.github.io/?QiAr3D~FJl
https://misarnite.github.io/?1~LyxKSuxh
https://misarnite.github.io/?OAcv6A~U8
https://misarnite.github.io/?~DGgaCSpYc
https://misarnite.github.io/?k~d5hILiLI
https://misarnite.github.io/?z~lEp83fkB
https://misarnite.github.io/?m~rBaGuyHD
https://misarnite.github.io/?iJsrAp8~D8
https://misarnite.github.io/?JN6~gNv0gs
https://misarnite.github.io/?79MaGnRsm~
https://misarnite.github.io/?tMi~1QBqc7
https://misarnite.github.io/?I~C49ftxcF
https://misarnite.github.io/?eyt~KskqhU
https://misarnite.github.io/?~QwLPvpZxA
https://misarnite.github.io/?x8N15~TWIJ
https://misarnite.github.io/?JbEHO~7EIf
https://misarnite.github.io/?PENV~JxaxR
https://misarnite.github.io/?Y~kTEtA5Bn
https://misarnite.github.io/?IX0hJ~qaCv
https://misarnite.github.io/?TLp~9PZN66
https://misarnite.github.io/?VHxTyG~A7K
https://misarnite.github.io/?wSDBvs~WDH
https://misarnite.github.io/?JZxpz~zmP2
https://misarnite.github.io/?8Sf~gey
https://misarnite.github.io/?i~2VBUa9oy
https://misarnite.github.io/?I1XV0n~7P9
https://misarnite.github.io/?c8o~JiMpfM
https://misarnite.github.io/?06Y9K~6jzT
https://misarnite.github.io/?9Yi~RcXu6x
https://misarnite.github.io/?ef1~HTd1vN
https://misarnite.github.io/?z~1P2C4xZk
https://misarnite.github.io/?SYF6zjQn~I
https://misarnite.github.io/?6CAiko89~N
https://misarnite.github.io/?902BPA6XK~
https://misarnite.github.io/?djB3~obBX0
https://misarnite.github.io/?AM50~xeyUo
https://misarnite.github.io/?RWKPIUn~5o
https://misarnite.github.io/?nVW9jw~U06
https://misarnite.github.io/?5CmoYFPM~I
https://misarnite.github.io/?mObgR77U~0
https://misarnite.github.io/?~75VEW1wqM
https://misarnite.github.io/?VOeTc~HgfY
https://misarnite.github.io/?~u37Z7LS2v
https://misarnite.github.io/?2r45~ITi2J
https://misarnite.github.io/?g7~acsFc3m
https://misarnite.github.io/?7~JonE5aLF
https://misarnite.github.io/?~HsN63hsPI
https://misarnite.github.io/?sWDas~GPEG
https://misarnite.github.io/?FopjIVQdJ~
https://misarnite.github.io/?~zTBbdeCYa
https://misarnite.github.io/?eovJbWK~ga
https://misarnite.github.io/?XhK~Jkx5IS
https://misarnite.github.io/?qb9ehDMpz~
https://misarnite.github.io/?PrDYZeRLz~
https://misarnite.github.io/?M~KeWKnSWn
https://misarnite.github.io/?Y~dtVHomfg
https://misarnite.github.io/?ur~lT4EFhs
https://misarnite.github.io/?PeBguWCLL~
https://misarnite.github.io/?1~dkIA0oLp
https://misarnite.github.io/?Pf2FnF645~
https://misarnite.github.io/?br~B10ZRAd
https://misarnite.github.io/?h5Vb~Q4uWS
https://misarnite.github.io/?vnUFbE8~TK
https://misarnite.github.io/?X1JGMAU2~I
https://misarnite.github.io/?~tXSrsBPPV
https://misarnite.github.io/?5L4hR2xQ~J
https://misarnite.github.io/?6ot~KoBEx5
https://misarnite.github.io/?iVg~QMwtBc
https://misarnite.github.io/?587MiWNy7~
https://misarnite.github.io/?ecNBmwmG~b
https://misarnite.github.io/?e~6p1SQDfZ
https://misarnite.github.io/?yaR~x974Ey
https://misarnite.github.io/?Qs~1cGx337
https://misarnite.github.io/?~2EaFCVEaW
https://misarnite.github.io/?f9s~eMimQe
https://misarnite.github.io/?1C~ck3XEZe
https://misarnite.github.io/?vXHfc4kN0~
https://misarnite.github.io/?U7bds~229H
https://misarnite.github.io/?c1~ha6zDRF
https://misarnite.github.io/?~20sxtq69
https://misarnite.github.io/?tznFRlOt~m
https://misarnite.github.io/?9u3iY0ms~x
https://misarnite.github.io/?O~XY5J8l8v
https://misarnite.github.io/?Z6f3I~8sVi
https://misarnite.github.io/?~l04abzsvA
https://misarnite.github.io/?r2SG56Bp~K
https://misarnite.github.io/?5M~fF38rhE
https://misarnite.github.io/?ypDe9v~E1X
https://misarnite.github.io/?~1YFl5jMsk
https://misarnite.github.io/?2whqIRo~7e
https://misarnite.github.io/?gxPi~aDXr0
https://misarnite.github.io/?WiT~RQahOm
https://misarnite.github.io/?GMiCIU~YBl
https://misarnite.github.io/?TFh~rfupL
https://misarnite.github.io/?tdRQ~pPIrO
https://misarnite.github.io/?S~cVFjvFq2
https://misarnite.github.io/?0Rb~Z2BVjL
https://misarnite.github.io/?VZ5llnsm3~
https://misarnite.github.io/?0o4PNYyz~3
https://misarnite.github.io/?7zapzw7~n6
https://misarnite.github.io/?~iaUzBqvLT
https://misarnite.github.io/?TCnq2Rd~F2
https://misarnite.github.io/?Q8~VhbiAOi
https://misarnite.github.io/?0~OqiaP3x4
https://misarnite.github.io/?APa3IW6z~s
https://misarnite.github.io/?INZRI6ma~G
https://misarnite.github.io/?m~iN3oC
https://misarnite.github.io/?Bf~dXbVcPd
https://misarnite.github.io/?4IGFdWQ~2X
https://misarnite.github.io/?AfrVIb~
https://misarnite.github.io/?~MjVvwg8Nd
https://misarnite.github.io/?wIWKUq5I~m
https://misarnite.github.io/?i8B93V~C8v
https://misarnite.github.io/?sma~5WXo1m
https://misarnite.github.io/?fhA1~1BbTo
https://misarnite.github.io/?7Oq~oPEsk8
https://misarnite.github.io/?~M9nLFXFjk
https://misarnite.github.io/?oC~ve7gHc3
https://misarnite.github.io/?gnoagx9~uL
https://misarnite.github.io/?~BMNfYJVVk
https://misarnite.github.io/?ThYCxpaxO~
https://misarnite.github.io/?Ee49GZpf~
https://misarnite.github.io/?WpMKj5~lhu
https://misarnite.github.io/?cSO3ph~Drq
https://misarnite.github.io/?EkNa68TuK~
https://misarnite.github.io/?40EjW8Ra~F
https://misarnite.github.io/?xpQYlY~XeJ
https://misarnite.github.io/?w~mt5uWm14
https://misarnite.github.io/?NKuk4F7~Pa
https://misarnite.github.io/?sZ~Vyb8d3Y
https://misarnite.github.io/?~pcnffRCO
https://misarnite.github.io/?1~bXeCeWn1
https://misarnite.github.io/?hi5Qt~4
https://misarnite.github.io/?GL8x4~h3eY
https://misarnite.github.io/?el8UrG2A~P
https://misarnite.github.io/?UaLJpHTr~e
https://misarnite.github.io/?VmCYBNs~tl
https://misarnite.github.io/?F7foTei~AB
https://misarnite.github.io/?GbwpCAS6J~
https://misarnite.github.io/?s8NoFK~S7S
https://misarnite.github.io/?SVN~pEgGuB
https://misarnite.github.io/?QCfgW3W6~0
https://misarnite.github.io/?7F~OJtyUkO
https://misarnite.github.io/?JSht~woNj6
https://misarnite.github.io/?1GDTigo~tT
https://misarnite.github.io/?J6AwFZX~u
https://misarnite.github.io/?m1~HyyKMg9
https://misarnite.github.io/?pOqhvgFvh~
https://misarnite.github.io/?3tkKoeKGF~
https://misarnite.github.io/?XfdJTR~0Yo
https://misarnite.github.io/?2Il7L~V0zH
https://misarnite.github.io/?~bnaDJi
https://misarnite.github.io/?zl~wM6w
https://misarnite.github.io/?r1~zvzZUo9
https://misarnite.github.io/?B~ZVjBFTch
https://misarnite.github.io/?P016Dm~mdx
https://misarnite.github.io/?B8jLOPRP~Z
https://misarnite.github.io/?iCk~njMv8l
https://misarnite.github.io/?fiNzMxFaE~
https://misarnite.github.io/?qpnFBCiB~v
https://misarnite.github.io/?V~3C7t87wS
https://misarnite.github.io/?6NX~jbnSsq
https://misarnite.github.io/?0lJ~Ud0bew
https://misarnite.github.io/?0oB5wfo~IG
https://misarnite.github.io/?l5JWv~xvWB
https://misarnite.github.io/?ouzekLw~z0
https://misarnite.github.io/?w1t8~noRY3
https://misarnite.github.io/?pc6~w0aTN4
https://misarnite.github.io/?n~8xqZF6zS
https://misarnite.github.io/?D~5peo8XeG
https://misarnite.github.io/?53b~v0WdsK
https://misarnite.github.io/?4VE1~QvYpt
https://misarnite.github.io/?kLXMUqnlF~
https://misarnite.github.io/?K4~SgLhp90
https://misarnite.github.io/?l2~iqJIiMi
https://misarnite.github.io/?01pj~vhI2d
https://misarnite.github.io/?N~uUxJ6uzF
https://misarnite.github.io/?M~h6cRY
https://misarnite.github.io/?zV6I0~CI0T
https://misarnite.github.io/?HvT9o~1QL4
https://misarnite.github.io/?I9~qQQU559
https://misarnite.github.io/?SZdov5~ead
https://misarnite.github.io/?h~5lMS684l
https://misarnite.github.io/?7ma~oUfhak
https://misarnite.github.io/?Oj2qy~rSqN
https://misarnite.github.io/?gaB6~zepnB
https://misarnite.github.io/?va1j~XEPJm
https://misarnite.github.io/?f~3IG7Ezv1
https://misarnite.github.io/?QVckgEmRg~
https://misarnite.github.io/?MKs~5b6AG6
https://misarnite.github.io/?R7Q~ePLXks
https://misarnite.github.io/?DVAW1JT~z1
https://misarnite.github.io/?8~z7IAiuvw
https://misarnite.github.io/?T7H51W~Wa2
https://misarnite.github.io/?LiYDWdPmk~
https://misarnite.github.io/?kzMj5fJ3~r
https://misarnite.github.io/?oWs~XyRQLi
https://misarnite.github.io/?J8Nt~qLCWh
https://misarnite.github.io/?SoQl4L6~mZ
https://misarnite.github.io/?uOTU4~cdn9
https://misarnite.github.io/?6wg~PVktCa
https://misarnite.github.io/?lvIYU1~
https://misarnite.github.io/?BMtrmsbn~
https://misarnite.github.io/?cD8ktLPPC~
https://misarnite.github.io/?~ydx2GyNgt
https://misarnite.github.io/?GcY~HUK054
https://misarnite.github.io/?kLB~J5oNPj
https://misarnite.github.io/?4Ac~nHawEf
https://misarnite.github.io/?ikZTFPG76~
https://misarnite.github.io/?SMu~Uu9Nf2
https://misarnite.github.io/?e~Bu4dz
https://misarnite.github.io/?7C~Bj6gFWz
https://misarnite.github.io/?qCsO~wJVVb
https://misarnite.github.io/?ozp~E68rh8
https://misarnite.github.io/?y04D4Aa2Y~
https://misarnite.github.io/?VUxXjzg~eO
https://misarnite.github.io/?1sm09atA~e
https://misarnite.github.io/?5970jA8G~b
https://misarnite.github.io/?Tlk~X1c1oH
https://misarnite.github.io/?2WvV~IFJ9H
https://misarnite.github.io/?7eV~8Yuu72
https://misarnite.github.io/?9qABnoGk~Y
https://misarnite.github.io/?~wVysrE2vm
https://misarnite.github.io/?29KxJQu~oT
https://misarnite.github.io/?BlxJRffd~g
https://misarnite.github.io/?S7CiI~sG33
https://misarnite.github.io/?Bd~Yib7iWG
https://misarnite.github.io/?pgWLG5a~HA
https://misarnite.github.io/?Y~lpWGyP8
https://misarnite.github.io/?~3r5ZnjpuM
https://misarnite.github.io/?uet9wuIa~0
https://misarnite.github.io/?7rMd~smrHr
https://misarnite.github.io/?e5jou~A2a
https://misarnite.github.io/?SB4p~ZdKgm
https://misarnite.github.io/?8FH~yTlOEJ
https://misarnite.github.io/?T~xqwXjZF2
https://misarnite.github.io/?5PzQShrG~Y
https://misarnite.github.io/?wbfUJkRYC~
https://misarnite.github.io/?~mWFQFHp4n
https://misarnite.github.io/?i3~zPDkZjS
https://misarnite.github.io/?368~0anROL
https://misarnite.github.io/?AL2jLLC4r~
https://misarnite.github.io/?SBcED~tKO4
https://misarnite.github.io/?yjlG~dNPjy
https://misarnite.github.io/?Sg~7nuBRWO
https://misarnite.github.io/?2SxWv3~O3T
https://misarnite.github.io/?S~u6Ki8i7Q
https://misarnite.github.io/?~cZyUrw6Yl
https://misarnite.github.io/?W~BtreH5Ma
https://misarnite.github.io/?4KcmAk~tep
https://misarnite.github.io/?aU~5L7PvFB
https://misarnite.github.io/?rm~UE5vGwk
https://misarnite.github.io/?a9~KhdRqm
https://misarnite.github.io/?SpXDui2~cJ
https://misarnite.github.io/?~sQLzn1nBe
https://misarnite.github.io/?VhO~N9FhF2
https://misarnite.github.io/?2pXpUdxE~Z
https://misarnite.github.io/?3GH~aJTt6d
https://misarnite.github.io/?c~Noz91q7q
https://misarnite.github.io/?b~7Q1Oc1Z7
https://misarnite.github.io/?NJ9d~wah2i
https://misarnite.github.io/?~ocB7dr3vW
https://misarnite.github.io/?vBY1~Es6hz
https://misarnite.github.io/?X~QeIOEky3
https://misarnite.github.io/?C3~hTtZDHe
https://misarnite.github.io/?xBdL9~0B2V
https://misarnite.github.io/?5vkx~6W9x7
https://misarnite.github.io/?Ct7bo7HGw~
https://misarnite.github.io/?UhDRPU4~qI
https://misarnite.github.io/?~zRT5rzp7K
https://misarnite.github.io/?90f7q61D~H
https://misarnite.github.io/?Ya3~rg0Ha0
https://misarnite.github.io/?9x~Y23Kw39
https://misarnite.github.io/?q~VPMJ8Neo
https://misarnite.github.io/?FhoY~ZJnIl
https://misarnite.github.io/?dpuskN~Z7
https://misarnite.github.io/?41u056lAo~
https://misarnite.github.io/?r~lV9iRoVp
https://misarnite.github.io/?bIh~HpgqJ9
https://misarnite.github.io/?qAdo3~O
https://misarnite.github.io/?jSx7CBr~YC
https://misarnite.github.io/?c~3WKg98LZ
https://misarnite.github.io/?yfoN~M1oDq
https://misarnite.github.io/?Boyj6Krg~b
https://misarnite.github.io/?G~VXOleiy5
https://misarnite.github.io/?qwGD~cASNi
https://misarnite.github.io/?e~UE1D24Sn
https://misarnite.github.io/?4i~XgdbSUv
https://misarnite.github.io/?0SLFgkj4q~
https://misarnite.github.io/?lpJsdu~uUr
https://misarnite.github.io/?~hd65esCbK
https://misarnite.github.io/?Cipbu~kdu5
https://misarnite.github.io/?SWwf~6OR2n
https://misarnite.github.io/?epLYyaOm~E
https://misarnite.github.io/?d~xDvlmckD
https://misarnite.github.io/?B1dVYYVTt~
https://misarnite.github.io/?5OqRtLr~Bs
https://misarnite.github.io/?fOW~MrZEO9
https://misarnite.github.io/?Wh14~ZXEsd
https://misarnite.github.io/?cLAYG~KPW4
https://misarnite.github.io/?vp65E~KpwR
https://misarnite.github.io/?FS~5dfGO8Y
https://misarnite.github.io/?CUYfXp~13
https://misarnite.github.io/?B4x39ifhD~
https://misarnite.github.io/?nltx~BBV1B
https://misarnite.github.io/?WxpKYM~4UQ
https://misarnite.github.io/?CVIB7~l56P
https://misarnite.github.io/?R~P2OT1CP9
https://misarnite.github.io/?1TVvMKj~MG
https://misarnite.github.io/?~QxNWljCe
https://misarnite.github.io/?EDT2X0K~WL
https://misarnite.github.io/?n~fNKcllTs
https://misarnite.github.io/?6vJ~XjtW4D
https://misarnite.github.io/?GXTSp~nTuS
https://misarnite.github.io/?O2x3KK~TdL
https://misarnite.github.io/?RFcG5~m
https://misarnite.github.io/?8~EACDn01T
https://misarnite.github.io/?9EHdoJXkt~
https://misarnite.github.io/?5gI~ySwari
https://misarnite.github.io/?qF5zHwtLy~
https://misarnite.github.io/?Me3P~3YN4Y
https://misarnite.github.io/?Y3i~soOPLJ
https://misarnite.github.io/?~P4BrRZARp
https://misarnite.github.io/?jlnvKH1V~o
https://misarnite.github.io/?0yI~NQyRny
https://misarnite.github.io/?lJXTPl5HF~
https://misarnite.github.io/?ki8~molBzC
https://misarnite.github.io/?9XldEn6J~G
https://misarnite.github.io/?qb4VsH~OvQ
https://misarnite.github.io/?ya4LDi~TqT
https://misarnite.github.io/?E~RzH4Kgud
https://misarnite.github.io/?JkjV~O9FUv
https://misarnite.github.io/?u~ShTvI4Ag
https://misarnite.github.io/?Ld~H0p7Ctu
https://misarnite.github.io/?~ZKl3bBZWm
https://misarnite.github.io/?l~g5fGEzCk
https://misarnite.github.io/?5QvSeLQl~d
https://misarnite.github.io/?2cg5s~ldDy
https://misarnite.github.io/?whyKd~qpnJ
https://misarnite.github.io/?QPrj~GZdEO
https://misarnite.github.io/?t1e4C~QQcv
https://misarnite.github.io/?9Ez~P628Bh
https://misarnite.github.io/?Q8WY~tyP26
https://misarnite.github.io/?d9~ftLaadq
https://misarnite.github.io/?FluJFMkP5~
https://misarnite.github.io/?du3O6~FJft
https://misarnite.github.io/?5bf1Vg~HZw
https://misarnite.github.io/?8RXpJ~wd6t
https://misarnite.github.io/?8S4y~YqW25
https://misarnite.github.io/?I4y6pbq~7a
https://misarnite.github.io/?9VJzw~q5FQ
https://misarnite.github.io/?4S~I0J3bSj
https://misarnite.github.io/?NBtGNU5~Q7
https://misarnite.github.io/?v1grLyn7~L
https://misarnite.github.io/?5a~3MxExJB
https://misarnite.github.io/?RO4SrabpS~
https://misarnite.github.io/?WvG~z7cbKG
https://misarnite.github.io/?KNR5l~YwPH
https://misarnite.github.io/?UbRTx~OVtq
https://misarnite.github.io/?doHepB~Jzs
https://misarnite.github.io/?WpUSU~qyD2
https://misarnite.github.io/?yV7~ayRLf0
https://misarnite.github.io/?g3Z~hxSr1j
https://misarnite.github.io/?a48bv~C
https://misarnite.github.io/?p~G7Nq5UYz
https://misarnite.github.io/?6i5nzmFy~I
https://misarnite.github.io/?e~vREBQKm0
https://misarnite.github.io/?O~5ZSvFXP8
https://misarnite.github.io/?Z~euHVpCA2
https://misarnite.github.io/?4k3vE~2TPu
https://misarnite.github.io/?a~xTvdh9LF
https://misarnite.github.io/?F~Yhc3tE28
https://misarnite.github.io/?3WH2o4WKB~
https://misarnite.github.io/?kieqgxTn~3
https://misarnite.github.io/?IiGZhX~IOz
https://misarnite.github.io/?pJl82~ztdJ
https://misarnite.github.io/?NV0EbR~uU6
https://misarnite.github.io/?~G0sHVjcea
https://misarnite.github.io/?ufQ~2ZkCYa
https://misarnite.github.io/?KFozlV~XJk
https://misarnite.github.io/?MNLqOg~
https://misarnite.github.io/?Ml0kapj9j~
https://misarnite.github.io/?w47~Q9eAlv
https://misarnite.github.io/?~t9HCxQcID
https://misarnite.github.io/?Ihpq~fD2r1
https://misarnite.github.io/?QfjmgW9~g9
https://misarnite.github.io/?AO~kB44mxf
https://misarnite.github.io/?UJfiTBuWM~
https://misarnite.github.io/?~62UZvLxbT
https://misarnite.github.io/?cVsy~9Ratf
https://misarnite.github.io/?K19YNy~rvp
https://misarnite.github.io/?xnp~fsrDWi
https://misarnite.github.io/?kMqyJc~2An
https://misarnite.github.io/?OB0G~hO2Ey
https://misarnite.github.io/?Ys~7HwoUwS
https://misarnite.github.io/?8lNf~pTN3A
https://misarnite.github.io/?wYbYI~jABg
https://misarnite.github.io/?aZGe~mK5pq
https://misarnite.github.io/?HLj5VU~Fi9
https://misarnite.github.io/?Oz2LPNxws~
https://misarnite.github.io/?gG1v2PS~xG
https://misarnite.github.io/?wUgq6t~oaz
https://misarnite.github.io/?sp~BgcDWuW
https://misarnite.github.io/?oILjTc~v8O
https://misarnite.github.io/?N~oUkG1
https://misarnite.github.io/?2XV1DT~Jw9
https://misarnite.github.io/?~3fUyV18sF
https://misarnite.github.io/?9Ho~aOIrP9
https://misarnite.github.io/?~VHvSjYvSf
https://misarnite.github.io/?oFOji5f36~
https://misarnite.github.io/?cayK~umr0s
https://misarnite.github.io/?P5R~UemL2Q
https://misarnite.github.io/?vxnQgH~LcR
https://misarnite.github.io/?Sv2kD~gi6H
https://misarnite.github.io/?xYH~LrO4cg
https://misarnite.github.io/?~0OwGm6poT
https://misarnite.github.io/?~jVwkRVS19
https://misarnite.github.io/?bclke1eLD~
https://misarnite.github.io/?~rPMqOkto8
https://misarnite.github.io/?rhl~UEHOsU
https://misarnite.github.io/?kkRM~kR
https://misarnite.github.io/?3ZC4qV~NCJ
https://misarnite.github.io/?m7Ou7PE2~o
https://misarnite.github.io/?20M9ZRl8a~
https://misarnite.github.io/?hqM3caA~iR
https://misarnite.github.io/?zCeZEs~q7A
https://misarnite.github.io/?pSyW5pPVj~
https://misarnite.github.io/?s7f08U~m67
https://misarnite.github.io/?R0GP~FwamX
https://misarnite.github.io/?GypvLq~3aW
https://misarnite.github.io/?kWjmCSmX~4
https://misarnite.github.io/?mpnNNcVC0~
https://misarnite.github.io/?zs9R~Vpsoe
https://misarnite.github.io/?d927anXc4~
https://misarnite.github.io/?yYl3~aGjwm
https://misarnite.github.io/?gZBVxs9WC~
https://misarnite.github.io/?A~fGytjeq
https://misarnite.github.io/?xjRoJ~kw5F
https://misarnite.github.io/?7uS9N~6aE
https://misarnite.github.io/?VcFmFKJ~x
https://misarnite.github.io/?LKeD~N1s5f
https://misarnite.github.io/?0fiu~VERfP
https://misarnite.github.io/?~DPo9zVg17
https://misarnite.github.io/?O8aFg~AiG5
https://misarnite.github.io/?R~Qec6VTyq
https://misarnite.github.io/?BPg~hDGta5
https://misarnite.github.io/?Q5van6~u71
https://misarnite.github.io/?CGn~sEg2bI
https://misarnite.github.io/?oNc5NcO~y1
https://misarnite.github.io/?l4~tGyafL8
https://misarnite.github.io/?nCVbc~ZAaY
https://misarnite.github.io/?wIehfo~YtU
https://misarnite.github.io/?~RLUaw9278
https://misarnite.github.io/?TVK~oeljNI
https://misarnite.github.io/?~IAK6y6C2U
https://misarnite.github.io/?urM~Lx2qwY
https://misarnite.github.io/?K~MoG7Qicb
https://misarnite.github.io/?6GLK4A9~m0
https://misarnite.github.io/?~0uMhLu2TJ
https://misarnite.github.io/?~Lrmlk7blu
https://misarnite.github.io/?XJn3I~RH8Z
https://misarnite.github.io/?~Ec3iTKAhI
https://misarnite.github.io/?e~hQGcYol1
https://misarnite.github.io/?U~pKAWqQfu
https://misarnite.github.io/?9~fKPSKwCc
https://misarnite.github.io/?~fNAZPv
https://misarnite.github.io/?2~541jxEmB
https://misarnite.github.io/?5L7JY3M~Qu
https://misarnite.github.io/?mA~qscPA6C
https://misarnite.github.io/?g6~Zv6E8QW
https://misarnite.github.io/?lt~r9dTfLy
https://misarnite.github.io/?OUni9pcO~P
https://misarnite.github.io/?WUg3QZLdO~
https://misarnite.github.io/?8~dzQlu
https://misarnite.github.io/?Ll1tk~ZFBk
https://misarnite.github.io/?3w~p6CKY9k
https://misarnite.github.io/?HyMl~YfoUk
https://misarnite.github.io/?9YpHDet~Ro
https://misarnite.github.io/?O~XPPW5
https://misarnite.github.io/?7i~An6E2rU
https://misarnite.github.io/?ujaZoa8oc~
https://misarnite.github.io/?8K~HYGyP3R
https://misarnite.github.io/?Q1yUJW~DUH
https://misarnite.github.io/?~o3yKeM9qL
https://misarnite.github.io/?S3wQGDks~j
https://misarnite.github.io/?4eDZfL2a~a
https://misarnite.github.io/?~Sa5Gy6m3Z
https://misarnite.github.io/?iR~AFtF4fP
https://misarnite.github.io/?xMdKaxLn~
https://misarnite.github.io/?sZk7~3lDkK
https://misarnite.github.io/?Aombz1s~PO
https://misarnite.github.io/?EJBx2A3K8~
https://misarnite.github.io/?R0S88VNf~o
https://misarnite.github.io/?KJa~Tbwc3e
https://misarnite.github.io/?2~zOzEQyYv
https://misarnite.github.io/?LA~QrTq4LI
https://misarnite.github.io/?rAa~QK5oPR
https://misarnite.github.io/?AxW~ISNj8Z
https://misarnite.github.io/?pIJ~Uqw
https://misarnite.github.io/?xkAj~uPJ2m
https://misarnite.github.io/?jrYsBuB~lq
https://misarnite.github.io/?SlRZg~
https://misarnite.github.io/?tRfXTP~pGJ
https://misarnite.github.io/?x~Acgnc2y3
https://misarnite.github.io/?syK~INhVZV
https://misarnite.github.io/?~YQ2upytyB
https://misarnite.github.io/?vnImP3lf~d
https://misarnite.github.io/?qSmTxb~24O
https://misarnite.github.io/?oytciC~F4e
https://misarnite.github.io/?OP~zR7YJ9R
https://misarnite.github.io/?aWwJabu~B5
https://misarnite.github.io/?TBSJHezr~O
https://misarnite.github.io/?iTUMoO~Zp6
https://misarnite.github.io/?lTQtm5z~Ii
https://misarnite.github.io/?BKJ6vsD0~n
https://misarnite.github.io/?5~nINFf2oT
https://misarnite.github.io/?ZtNC9~P
https://misarnite.github.io/?tfU6A~qMpL
https://misarnite.github.io/?At~eXa5KUK
https://misarnite.github.io/?zaG~E4dDgy
https://misarnite.github.io/?27zQPrD~Wo
https://misarnite.github.io/?ABiIxBSuC~
https://misarnite.github.io/?oz~fh6CwEY
https://misarnite.github.io/?on~uU3e7cF
https://misarnite.github.io/?XwC~tHNVBf
https://misarnite.github.io/?Edhu~porc2
https://misarnite.github.io/?8C6GZV~Q8E
https://misarnite.github.io/?JDI31u108~
https://misarnite.github.io/?EoAPX867~Y
https://misarnite.github.io/?HaqUvTR~9
https://misarnite.github.io/?BjD~txvFmY
https://misarnite.github.io/?~p3DcHutsu
https://misarnite.github.io/?5Qfj~3xCGU
https://misarnite.github.io/?3~maBEw8W8
https://misarnite.github.io/?LMev~yD9aH
https://misarnite.github.io/?hM~dqIlAeW
https://misarnite.github.io/?X9vJ7U~7hg
https://misarnite.github.io/?4E~CNrzQyT
https://misarnite.github.io/?j0D8mjLe~e
https://misarnite.github.io/?Gtxiw~Um5o
https://misarnite.github.io/?RLBymMxw~J
https://misarnite.github.io/?GTlqZ5~L92
https://misarnite.github.io/?~Prgw0AAaK
https://misarnite.github.io/?CjS4MKJ3a~